version 2
1
9
.tran 1u 1m 0{return}.kicad adjustpaths{return}.save all{return}.probe alli
3
1
V(IN)
 
1
V(IN_F)
 
1
V(OUT)
 
